functions/OneTimeScripts/validationAgainstOpenDSS_MATLAB/ieee123_1ph_created/results/powers18.csv
Element, Terminal, P(kW), Q(kvar),  P_Normal, Q_Normal, P_Emergency, Q_Emergency
"Line.L115"             ,   1,       608.6,       397.1,         0.0,         0.0,         0.0,         0.0
"Line.L115"             ,   2,      -606.5,      -392.8
"Line.L1"               ,   1,         6.3,         3.2,         0.0,         0.0,         0.0,         0.0
"Line.L1"               ,   2,        -6.3,        -3.2
"Line.L2"               ,   1,        31.7,        15.9,         0.0,         0.0,         0.0,         0.0
"Line.L2"               ,   2,       -31.7,       -15.8
"Line.L3"               ,   1,       555.8,       367.4,         0.0,         0.0,         0.0,         0.0
"Line.L3"               ,   2,      -554.5,      -364.7
"Line.L4"               ,   1,        12.7,         6.3,         0.0,         0.0,         0.0,         0.0
"Line.L4"               ,   2,       -12.7,        -6.3
"Line.L5"               ,   1,        19.0,         9.5,         0.0,         0.0,         0.0,         0.0
"Line.L5"               ,   2,       -19.0,        -9.5
"Line.L6"               ,   1,        12.7,         6.3,         0.0,         0.0,         0.0,         0.0
"Line.L6"               ,   2,       -12.7,        -6.3
"Line.L7"               ,   1,       548.2,       361.5,         0.0,         0.0,         0.0,         0.0
"Line.L7"               ,   2,      -547.3,      -359.7
"Line.L8"               ,   1,         6.3,         3.2,         0.0,         0.0,         0.0,         0.0
"Line.L8"               ,   2,        -6.3,        -3.2
"Line.L9"               ,   1,         5.6,        15.8,         0.0,         0.0,         0.0,         0.0
"Line.L9"               ,   2,        -5.5,       -15.8
"Line.L10"              ,   1,       535.4,       340.7,         0.0,         0.0,         0.0,         0.0
"Line.L10"              ,   2,      -534.2,      -338.2
"Line.L11"              ,   1,        19.0,         9.5,         0.0,         0.0,         0.0,         0.0
"Line.L11"              ,   2,       -19.0,        -9.5
"Line.L12"              ,   1,        31.7,        15.8,         0.0,         0.0,         0.0,         0.0
"Line.L12"              ,   2,       -31.7,       -15.8
"Line.L13"              ,   1,       190.8,       208.0,         0.0,         0.0,         0.0,         0.0
"Line.L13"              ,   2,      -190.2,      -206.6
"Line.L14"              ,   1,        12.7,         6.3,         0.0,         0.0,         0.0,         0.0
"Line.L14"              ,   2,       -12.7,        -6.3
"Line.L15"              ,   1,         6.3,         3.2,         0.0,         0.0,         0.0,         0.0
"Line.L15"              ,   2,        -6.3,        -3.2
"Line.L16"              ,   1,        12.7,         6.3,         0.0,         0.0,         0.0,         0.0
"Line.L16"              ,   2,       -12.7,        -6.3
"Line.L17"              ,   1,         6.3,         3.2,         0.0,         0.0,         0.0,         0.0
"Line.L17"              ,   2,        -6.3,        -3.2
"Line.L18"              ,   1,        25.3,        12.7,         0.0,         0.0,         0.0,         0.0
"Line.L18"              ,   2,       -25.3,       -12.7
"Line.L19"              ,   1,        62.6,        44.4,         0.0,         0.0,         0.0,         0.0
"Line.L19"              ,   2,       -62.6,       -44.4
"Line.L20"              ,   1,        12.7,         6.3,         0.0,         0.0,         0.0,         0.0
"Line.L20"              ,   2,       -12.7,        -6.3
"Line.L21"              ,   1,        12.7,         6.3,         0.0,         0.0,         0.0,         0.0
"Line.L21"              ,   2,       -12.7,        -6.3
"Line.L22"              ,   1,        49.9,        38.0,         0.0,         0.0,         0.0,         0.0
"Line.L22"              ,   2,       -49.9,       -38.0
"Line.L23"              ,   1,        12.7,         6.3,         0.0,         0.0,         0.0,         0.0
"Line.L23"              ,   2,       -12.7,        -6.3
"Line.L24"              ,   1,        37.2,        31.7,         0.0,         0.0,         0.0,         0.0
"Line.L24"              ,   2,       -37.2,       -31.7
"Line.L25"              ,   1,        25.3,        12.7,         0.0,         0.0,         0.0,         0.0
"Line.L25"              ,   2,       -25.3,       -12.7
"Line.L26"              ,   1,        11.9,        19.0,         0.0,         0.0,         0.0,         0.0
"Line.L26"              ,   2,       -11.9,       -19.0
"Line.L27"              ,   1,        12.7,         6.3,         0.0,         0.0,         0.0,         0.0
"Line.L27"              ,   2,       -12.7,        -6.3
"Line.L28"              ,   1,        12.7,         6.3,         0.0,         0.0,         0.0,         0.0
"Line.L28"              ,   2,       -12.7,        -6.3
"Line.L29"              ,   1,        12.7,         6.3,         0.0,         0.0,         0.0,         0.0
"Line.L29"              ,   2,       -12.7,        -6.3
"Line.L30"              ,   1,        25.3,        12.7,         0.0,         0.0,         0.0,         0.0
"Line.L30"              ,   2,       -25.3,       -12.7
"Line.L31"              ,   1,        12.7,         6.3,         0.0,         0.0,         0.0,         0.0
"Line.L31"              ,   2,       -12.7,        -6.3
"Line.L32"              ,   1,        -0.0,        -0.0,         0.0,         0.0,         0.0,         0.0
"Line.L32"              ,   2,         0.0,        -0.0
"Line.L33"              ,   1,         6.3,         3.2,         0.0,         0.0,         0.0,         0.0
"Line.L33"              ,   2,        -6.3,        -3.2
"Line.L34"              ,   1,        19.0,         9.5,         0.0,         0.0,         0.0,         0.0
"Line.L34"              ,   2,       -19.0,        -9.5
"Line.L35"              ,   1,        25.3,        12.7,         0.0,         0.0,         0.0,         0.0
"Line.L35"              ,   2,       -25.3,       -12.7
"Line.L36"              ,   1,        64.1,       130.2,         0.0,         0.0,         0.0,         0.0
"Line.L36"              ,   2,       -64.0,      -130.1
"Line.L37"              ,   1,        12.7,         6.3,         0.0,         0.0,         0.0,         0.0
"Line.L37"              ,   2,       -12.7,        -6.3
"Line.L38"              ,   1,        12.7,         6.3,         0.0,         0.0,         0.0,         0.0
"Line.L38"              ,   2,       -12.7,        -6.3
"Line.L39"              ,   1,         6.3,         3.2,         0.0,         0.0,         0.0,         0.0
"Line.L39"              ,   2,        -6.3,        -3.2
"Line.L40"              ,   1,         6.3,         3.2,         0.0,         0.0,         0.0,         0.0
"Line.L40"              ,   2,        -6.3,        -3.2
"Line.L41"              ,   1,        57.7,       127.0,         0.0,         0.0,         0.0,         0.0
"Line.L41"              ,   2,       -57.7,      -126.8
"Line.L42"              ,   1,        12.7,         6.3,         0.0,         0.0,         0.0,         0.0
"Line.L42"              ,   2,       -12.7,        -6.3
"Line.L43"              ,   1,        38.6,       117.3,         0.0,         0.0,         0.0,         0.0
"Line.L43"              ,   2,       -38.6,      -117.3
"Line.L44"              ,   1,        12.7,         6.3,         0.0,         0.0,         0.0,         0.0
"Line.L44"              ,   2,       -12.7,        -6.3
"Line.L45"              ,   1,        25.9,       111.0,         0.0,         0.0,         0.0,         0.0
"Line.L45"              ,   2,       -25.9,      -110.9
"Line.L46"              ,   1,         6.3,         3.2,         0.0,         0.0,         0.0,         0.0
"Line.L46"              ,   2,        -6.3,        -3.2
"Line.L47"              ,   1,       -70.7,        47.5,         0.0,         0.0,         0.0,         0.0
"Line.L47"              ,   2,        70.7,       -47.5
"Line.L48"              ,   1,        63.4,        39.6,         0.0,         0.0,         0.0,         0.0
"Line.L48"              ,   2,       -63.3,       -39.6
"Line.L49"              ,   1,        19.0,         9.5,         0.0,         0.0,         0.0,         0.0
"Line.L49"              ,   2,       -19.0,        -9.5
"Line.L50"              ,   1,         6.3,         3.2,         0.0,         0.0,         0.0,         0.0
"Line.L50"              ,   2,        -6.3,        -3.2
"Line.L51"              ,   1,         0.0,        -0.0,         0.0,         0.0,         0.0,         0.0
"Line.L51"              ,   2,         0.0,        -0.0
"Line.L52"              ,   1,       298.5,       107.1,         0.0,         0.0,         0.0,         0.0
"Line.L52"              ,   2,      -298.3,      -106.7
"Line.L53"              ,   1,       285.6,       100.4,         0.0,         0.0,         0.0,         0.0
"Line.L53"              ,   2,      -285.5,      -100.1
"Line.L54"              ,   1,        12.7,         6.3,         0.0,         0.0,         0.0,         0.0
"Line.L54"              ,   2,       -12.7,        -6.3
"Line.L55"              ,   1,       272.9,        93.8,         0.0,         0.0,         0.0,         0.0
"Line.L55"              ,   2,      -272.6,       -93.2
"Line.L56"              ,   1,         6.3,         3.2,         0.0,         0.0,         0.0,         0.0
"Line.L56"              ,   2,        -6.3,        -3.2
"Line.L57"              ,   1,        -0.4,         6.3,         0.0,         0.0,         0.0,         0.0
"Line.L57"              ,   2,         0.4,        -6.3
"Line.L58"              ,   1,       273.0,        86.9,         0.0,         0.0,         0.0,         0.0
"Line.L58"              ,   2,      -272.3,       -85.6
"Line.L59"              ,   1,         6.3,         3.2,         0.0,         0.0,         0.0,         0.0
"Line.L59"              ,   2,        -6.3,        -3.2
"Line.L60"              ,   1,         0.0,        -0.0,         0.0,         0.0,         0.0,         0.0
"Line.L60"              ,   2,        -0.0,         0.0
"Line.L61"              ,   1,        25.8,        66.5,         0.0,         0.0,         0.0,         0.0
"Line.L61"              ,   2,       -25.8,       -66.5
"Line.L62"              ,   1,        13.1,        60.1,         0.0,         0.0,         0.0,         0.0
"Line.L62"              ,   2,       -13.1,       -60.1
"Line.L63"              ,   1,         0.4,        53.8,         0.0,         0.0,         0.0,         0.0
"Line.L63"              ,   2,        -0.4,       -53.8
"Line.L64"              ,   1,       -23.3,        42.7,         0.0,         0.0,         0.0,         0.0
"Line.L64"              ,   2,        23.4,       -42.7
"Line.L65"              ,   1,        23.8,        11.1,         0.0,         0.0,         0.0,         0.0
"Line.L65"              ,   2,       -23.8,       -11.1
"Line.L66"              ,   1,        38.0,        19.0,         0.0,         0.0,         0.0,         0.0
"Line.L66"              ,   2,       -38.0,       -19.0
"Line.L67"              ,   1,        88.4,       -73.6,         0.0,         0.0,         0.0,         0.0
"Line.L67"              ,   2,       -88.4,        73.6
"Line.L68"              ,   1,       113.5,        70.0,         0.0,         0.0,         0.0,         0.0
"Line.L68"              ,   2,      -113.4,       -69.9
"Line.L69"              ,   1,        31.7,        15.9,         0.0,         0.0,         0.0,         0.0
"Line.L69"              ,   2,       -31.7,       -15.8
"Line.L70"              ,   1,        19.0,         9.5,         0.0,         0.0,         0.0,         0.0
"Line.L70"              ,   2,       -19.0,        -9.5
"Line.L71"              ,   1,        12.7,         6.3,         0.0,         0.0,         0.0,         0.0
"Line.L71"              ,   2,       -12.7,        -6.3
"Line.L72"              ,   1,        38.0,        19.0,         0.0,         0.0,         0.0,         0.0
"Line.L72"              ,   2,       -38.0,       -19.0
"Line.L73"              ,   1,        50.3,       -92.7,         0.0,         0.0,         0.0,         0.0
"Line.L73"              ,   2,       -50.3,        92.7
"Line.L74"              ,   1,        25.4,        12.7,         0.0,         0.0,         0.0,         0.0
"Line.L74"              ,   2,       -25.3,       -12.7
"Line.L75"              ,   1,        12.7,         6.3,         0.0,         0.0,         0.0,         0.0
"Line.L75"              ,   2,       -12.7,        -6.3
"Line.L76"              ,   1,        76.5,      -145.4,         0.0,         0.0,         0.0,         0.0
"Line.L76"              ,   2,       -76.4,       145.7
"Line.L77"              ,   1,        56.3,        -4.3,         0.0,         0.0,         0.0,         0.0
"Line.L77"              ,   2,       -56.2,         4.4
"Line.L78"              ,   1,        63.8,      -152.0,         0.0,         0.0,         0.0,         0.0
"Line.L78"              ,   2,       -63.7,       152.0
"Line.L79"              ,   1,        12.7,         6.3,         0.0,         0.0,         0.0,         0.0
"Line.L79"              ,   2,       -12.7,        -6.3
"Line.L80"              ,   1,        51.1,      -158.4,         0.0,         0.0,         0.0,         0.0
"Line.L80"              ,   2,       -50.9,       158.7
"Line.L81"              ,   1,        38.2,      -165.0,         0.0,         0.0,         0.0,         0.0
"Line.L81"              ,   2,       -38.2,       165.1
"Line.L82"              ,   1,        19.2,      -174.6,         0.0,         0.0,         0.0,         0.0
"Line.L82"              ,   2,       -19.1,       174.8
"Line.L83"              ,   1,        19.0,         9.5,         0.0,         0.0,         0.0,         0.0
"Line.L83"              ,   2,       -19.0,        -9.5
"Line.L84"              ,   1,         6.4,      -181.1,         0.0,         0.0,         0.0,         0.0
"Line.L84"              ,   2,        -6.3,       181.3
"Line.L85"              ,   1,        12.7,         6.3,         0.0,         0.0,         0.0,         0.0
"Line.L85"              ,   2,       -12.7,        -6.3
"Line.L86"              ,   1,        49.9,        -7.5,         0.0,         0.0,         0.0,         0.0
"Line.L86"              ,   2,       -49.9,         7.6
"Line.L87"              ,   1,        12.7,        -8.9,         0.0,         0.0,         0.0,         0.0
"Line.L87"              ,   2,       -12.7,         8.9
"Line.L88"              ,   1,        50.7,        -5.0,         0.0,         0.0,         0.0,         0.0
"Line.L88"              ,   2,       -50.7,         5.0
"Line.L89"              ,   1,        12.7,        -8.9,         0.0,         0.0,         0.0,         0.0
"Line.L89"              ,   2,       -12.7,         8.9
"Line.L90"              ,   1,        38.0,         3.8,         0.0,         0.0,         0.0,         0.0
"Line.L90"              ,   2,       -38.0,        -3.8
"Line.L91"              ,   1,        12.7,        -8.9,         0.0,         0.0,         0.0,         0.0
"Line.L91"              ,   2,       -12.7,         8.9
"Line.L92"              ,   1,        25.3,        12.7,         0.0,         0.0,         0.0,         0.0
"Line.L92"              ,   2,       -25.3,       -12.7
"Line.L93"              ,   1,        12.7,         6.3,         0.0,         0.0,         0.0,         0.0
"Line.L93"              ,   2,       -12.7,        -6.3
"Line.L94"              ,   1,        12.7,         6.3,         0.0,         0.0,         0.0,         0.0
"Line.L94"              ,   2,       -12.7,        -6.3
"Line.L95"              ,   1,         6.3,         3.2,         0.0,         0.0,         0.0,         0.0
"Line.L95"              ,   2,        -6.3,        -3.2
"Line.L96"              ,   1,        11.9,        19.0,         0.0,         0.0,         0.0,         0.0
"Line.L96"              ,   2,       -11.9,       -19.0
"Line.L97"              ,   1,        -0.8,        12.7,         0.0,         0.0,         0.0,         0.0
"Line.L97"              ,   2,         0.8,       -12.7
"Line.L98"              ,   1,       -13.5,         6.3,         0.0,         0.0,         0.0,         0.0
"Line.L98"              ,   2,        13.5,        -6.3
"Line.L99"              ,   1,         0.0,        -0.0,         0.0,         0.0,         0.0,         0.0
"Line.L99"              ,   2,         0.0,         0.0
"Line.L118"             ,   1,       101.5,        50.9,         0.0,         0.0,         0.0,         0.0
"Line.L118"             ,   2,      -101.5,       -50.8
"Line.L100"             ,   1,        31.7,        15.9,         0.0,         0.0,         0.0,         0.0
"Line.L100"             ,   2,       -31.7,       -15.8
"Line.L101"             ,   1,        69.8,        35.0,         0.0,         0.0,         0.0,         0.0
"Line.L101"             ,   2,       -69.8,       -34.9
"Line.L102"             ,   1,        25.4,        12.7,         0.0,         0.0,         0.0,         0.0
"Line.L102"             ,   2,       -25.3,       -12.7
"Line.L103"             ,   1,        12.7,         6.3,         0.0,         0.0,         0.0,         0.0
"Line.L103"             ,   2,       -12.7,        -6.3
"Line.L104"             ,   1,        25.3,        12.7,         0.0,         0.0,         0.0,         0.0
"Line.L104"             ,   2,       -25.3,       -12.7
"Line.L105"             ,   1,        44.4,        22.3,         0.0,         0.0,         0.0,         0.0
"Line.L105"             ,   2,       -44.4,       -22.2
"Line.L106"             ,   1,        12.7,         6.3,         0.0,         0.0,         0.0,         0.0
"Line.L106"             ,   2,       -12.7,        -6.3
"Line.L107"             ,   1,        44.4,        22.2,         0.0,         0.0,         0.0,         0.0
"Line.L107"             ,   2,       -44.4,       -22.2
"Line.L108"             ,   1,         0.0,        -0.0,         0.0,         0.0,         0.0,         0.0
"Line.L108"             ,   2,         0.0,         0.0
"Line.L109"             ,   1,        31.7,        15.9,         0.0,         0.0,         0.0,         0.0
"Line.L109"             ,   2,       -31.7,       -15.8
"Line.L110"             ,   1,         6.3,         3.2,         0.0,         0.0,         0.0,         0.0
"Line.L110"             ,   2,        -6.3,        -3.2
"Line.L111"             ,   1,        25.4,        12.7,         0.0,         0.0,         0.0,         0.0
"Line.L111"             ,   2,       -25.3,       -12.7
"Line.L112"             ,   1,        19.0,         9.5,         0.0,         0.0,         0.0,         0.0
"Line.L112"             ,   2,       -19.0,        -9.5
"Line.L113"             ,   1,         6.3,         3.2,         0.0,         0.0,         0.0,         0.0
"Line.L113"             ,   2,        -6.3,        -3.2
"Line.L114"             ,   1,       102.2,       149.5,         0.0,         0.0,         0.0,         0.0
"Line.L114"             ,   2,      -102.1,      -149.2
"Line.L116"             ,   1,       311.6,       114.4,         0.0,         0.0,         0.0,         0.0
"Line.L116"             ,   2,      -311.2,      -113.5
"Line.L117"             ,   1,       240.1,        15.9,         0.0,         0.0,         0.0,         0.0
"Line.L117"             ,   2,      -239.9,       -15.5
"Line.SW1"              ,   1,       608.6,       397.1,         0.0,         0.0,         0.0,         0.0
"Line.SW1"              ,   2,      -608.6,      -397.1
"Line.SW2"              ,   1,       311.6,       114.4,         0.0,         0.0,         0.0,         0.0
"Line.SW2"              ,   2,      -311.6,      -114.4
"Line.SW3"              ,   1,       102.2,       149.5,         0.0,         0.0,         0.0,         0.0
"Line.SW3"              ,   2,      -102.2,      -149.5
"Line.SW4"              ,   1,       240.1,        15.9,         0.0,         0.0,         0.0,         0.0
"Line.SW4"              ,   2,      -240.1,       -15.9
"Line.SW5"              ,   1,       101.5,        50.9,         0.0,         0.0,         0.0,         0.0
"Line.SW5"              ,   2,      -101.5,       -50.9
"Line.XFM1"             ,   1,         0.0,         0.0,         0.0,         0.0,         0.0,         0.0
"Line.XFM1"             ,   2,         0.0,         0.0
"Capacitor.C83"         ,   1,         0.0,      -184.5,         0.0,         0.0,         0.0,         0.0
"Capacitor.C83"         ,   2,         0.0,         0.0
"Capacitor.C88"         ,   1,         0.0,       -15.2,         0.0,         0.0,         0.0,         0.0
"Capacitor.C88"         ,   2,         0.0,         0.0
"Capacitor.C90"         ,   1,         0.0,       -15.2,         0.0,         0.0,         0.0,         0.0
"Capacitor.C90"         ,   2,         0.0,         0.0
"Capacitor.C92"         ,   1,         0.0,       -15.2,         0.0,         0.0,         0.0,         0.0
"Capacitor.C92"         ,   2,         0.0,         0.0
"Transformer.REG1A"     ,   1,       608.6,       397.1,         0.0,         0.0,         0.0,         0.0
"Transformer.REG1A"     ,   2,      -608.6,      -397.1
"Transformer.REG2A"     ,   1,        19.0,         9.5,         0.0,         0.0,         0.0,         0.0
"Transformer.REG2A"     ,   2,       -19.0,        -9.5
"Transformer.REG3A"     ,   1,        25.3,        12.7,         0.0,         0.0,         0.0,         0.0
"Transformer.REG3A"     ,   2,       -25.3,       -12.7
"Transformer.REG4A"     ,   1,       240.1,        15.9,         0.0,         0.0,         0.0,         0.0
"Transformer.REG4A"     ,   2,      -240.1,       -15.9
"Load.S1"               ,   1,        12.7,         6.3
"Load.S2"               ,   1,         6.3,         3.2
"Load.S4"               ,   1,        12.7,         6.3
"Load.S5"               ,   1,         6.3,         3.2
"Load.S6"               ,   1,        12.7,         6.3
"Load.S7"               ,   1,         6.3,         3.2
"Load.S9"               ,   1,        12.7,         6.3
"Load.S10"              ,   1,         6.3,         3.2
"Load.S11"              ,   1,        12.7,         6.3
"Load.S12"              ,   1,         6.3,         3.2
"Load.S16"              ,   1,        12.7,         6.3
"Load.S17"              ,   1,         6.3,         3.2
"Load.S19"              ,   1,        12.7,         6.3
"Load.S20"              ,   1,        12.7,         6.3
"Load.S22"              ,   1,        12.7,         6.3
"Load.S24"              ,   1,        12.7,         6.3
"Load.S28"              ,   1,        12.7,         6.3
"Load.S29"              ,   1,        12.7,         6.3
"Load.S30"              ,   1,        12.7,         6.3
"Load.S31"              ,   1,         6.3,         3.2
"Load.S32"              ,   1,         6.3,         3.2
"Load.S33"              ,   1,        12.7,         6.3
"Load.S34"              ,   1,        12.7,         6.3
"Load.S35"              ,   1,        12.7,         6.3
"Load.S37"              ,   1,        12.7,         6.3
"Load.S38"              ,   1,         6.3,         3.2
"Load.S39"              ,   1,         6.3,         3.2
"Load.S41"              ,   1,         6.3,         3.2
"Load.S42"              ,   1,         6.3,         3.2
"Load.S43"              ,   1,        12.7,         6.3
"Load.S45"              ,   1,         6.3,         3.2
"Load.S46"              ,   1,         6.3,         3.2
"Load.S47"              ,   1,        33.3,        23.8
"Load.S48"              ,   1,        66.5,        47.5
"Load.S49"              ,   1,        44.3,        30.1
"Load.S50"              ,   1,        12.7,         6.3
"Load.S51"              ,   1,         6.3,         3.2
"Load.S52"              ,   1,        12.7,         6.3
"Load.S53"              ,   1,        12.7,         6.3
"Load.S55"              ,   1,         6.3,         3.2
"Load.S56"              ,   1,         6.3,         3.2
"Load.S58"              ,   1,         6.3,         3.2
"Load.S59"              ,   1,         6.3,         3.2
"Load.S60"              ,   1,         6.3,         3.2
"Load.S62"              ,   1,        12.7,         6.3
"Load.S63"              ,   1,        12.7,         6.3
"Load.S64"              ,   1,        23.8,        11.1
"Load.S65"              ,   1,        44.3,        31.7
"Load.S66"              ,   1,        23.8,        11.1
"Load.S68"              ,   1,         6.3,         3.2
"Load.S69"              ,   1,        12.7,         6.3
"Load.S70"              ,   1,         6.3,         3.2
"Load.S71"              ,   1,        12.7,         6.3
"Load.S73"              ,   1,        12.7,         6.3
"Load.S74"              ,   1,        12.7,         6.3
"Load.S75"              ,   1,        12.7,         6.3
"Load.S76"              ,   1,        77.6,        57.0
"Load.S77"              ,   1,        12.7,         6.3
"Load.S79"              ,   1,        12.7,         6.3
"Load.S80"              ,   1,        12.7,         6.3
"Load.S82"              ,   1,        12.7,         6.3
"Load.S83"              ,   1,         6.3,         3.2
"Load.S84"              ,   1,         6.3,         3.2
"Load.S85"              ,   1,        12.7,         6.3
"Load.S86"              ,   1,         6.3,         3.2
"Load.S87"              ,   1,        12.7,         6.3
"Load.S88"              ,   1,        12.7,         6.3
"Load.S90"              ,   1,        12.7,         6.3
"Load.S92"              ,   1,        12.7,         6.3
"Load.S94"              ,   1,        12.7,         6.3
"Load.S95"              ,   1,         6.3,         3.2
"Load.S96"              ,   1,         6.3,         3.2
"Load.S98"              ,   1,        12.7,         6.3
"Load.S99"              ,   1,        12.7,         6.3
"Load.S100"             ,   1,        12.7,         6.3
"Load.S102"             ,   1,         6.3,         3.2
"Load.S103"             ,   1,        12.7,         6.3
"Load.S104"             ,   1,        12.7,         6.3
"Load.S106"             ,   1,        12.7,         6.3
"Load.S107"             ,   1,        12.7,         6.3
"Load.S109"             ,   1,        12.7,         6.3
"Load.S111"             ,   1,         6.3,         3.2
"Load.S112"             ,   1,         6.3,         3.2
"Load.S113"             ,   1,        12.7,         6.3
"Load.S114"             ,   1,         6.3,         3.2
"PVSystem.9"            ,   1,       -13.3,        -0.0
"PVSystem.28"           ,   1,       -13.3,        -0.0
"PVSystem.48"           ,   1,       -70.0,        -0.0
"PVSystem.58"           ,   1,        -6.7,        -0.0
"PVSystem.65"           ,   1,       -46.7,        -0.0
"PVSystem.76"           ,   1,       -81.7,        -0.0
"PVSystem.87"           ,   1,       -13.3,        -0.0
"PVSystem.100"          ,   1,       -13.3,        -0.0
"Storage.BATTERY9"      ,   1,       -12.8,        -0.0
"Storage.BATTERY28"     ,   1,       -12.8,        -0.0
"Storage.BATTERY48"     ,   1,       -67.2,        -0.0
"Storage.BATTERY58"     ,   1,        -6.4,        -0.0
"Storage.BATTERY65"     ,   1,       -44.8,        -0.0
"Storage.BATTERY76"     ,   1,       -78.4,        -0.0
"Storage.BATTERY87"     ,   1,       -12.8,        -0.0
"Storage.BATTERY100"    ,   1,       -12.8,        -0.0
